data_crystal

_cell_length_a   21.8172000
_cell_length_b   21.3424000
_cell_length_c    8.5476000
_cell_angle_alpha  110.8340000
_cell_angle_beta   48.4766000
_cell_angle_gamma  120.6840000

_symmetry_space_group_name_Hall 'P 1'
_symmetry_space_group_name_H-M  'P 1'

loop_
_symmetry_equiv_pos_as_xyz
 'x,y,z' 

loop_
_atom_site_label
_atom_site_type_symbol
_atom_site_fract_x
_atom_site_fract_y
_atom_site_fract_z
_atom_site_charge
C   C      0.5830800    0.9954300    0.2089600          nan
C   C      0.9955900    0.5683900    0.2944800          nan
C   C      0.4320300    0.4246600    0.2585900          nan
C   C      0.4328900    0.9975400    0.2667500          nan
C   C      0.0149100    0.4271200    0.1884900          nan
C   C      0.5769600    0.5669100    0.2234500          nan
C   C      0.5752000    0.0584700    0.2215900          nan
C   C      0.9407300    0.5018700    0.2614400          nan
C   C      0.5022800    0.4325500    0.2489000          nan
C   C      0.4404100    0.9345900    0.2555800          nan
C   C      0.0701300    0.4935900    0.2200500          nan
C   C      0.5068400    0.5586300    0.2320900          nan
O   O      0.6361000    0.1295400    0.2063400          nan
O   O      0.8700300    0.4908800    0.2699600          nan
O   O      0.5149700    0.3769800    0.2585500          nan
O   O      0.3795400    0.8638200    0.2694300          nan
O   O      0.1409200    0.5045900    0.2112600          nan
O   O      0.4933200    0.6141900    0.2254600          nan
C   C      0.0614400    0.5601100    0.2694400          nan
C   C      0.4386900    0.4920100    0.2490500          nan
C   C      0.5102700    0.9330500    0.2298400          nan
C   C      0.9497500    0.4355900    0.2114300          nan
C   C      0.5705600    0.4994600    0.2324100          nan
C   C      0.5050300    0.0598600    0.2485200          nan
O   O      0.1268300    0.6139200    0.2917000          nan
O   O      0.3810000    0.5041200    0.2525900          nan
O   O      0.4939000    0.8607500    0.2276400          nan
O   O      0.8850300    0.3817400    0.1870000          nan
O   O      0.6271600    0.4869300    0.2320400          nan
O   O      0.5207900    0.1317500    0.2500800          nan
C   C      0.6421100    0.2574800    0.2240300          nan
C   C      0.7547800    0.3747800    0.2229800          nan
C   C      0.6354400    0.3716900    0.2440400          nan
C   C      0.3715800    0.7354200    0.2517800          nan
C   C      0.2561400    0.6192500    0.2587400          nan
C   C      0.3739800    0.6199900    0.2387000          nan
B   B      0.6011000    0.1739000    0.2252100          nan
B   B      0.8362100    0.4163800    0.2248700          nan
B   B      0.5924500    0.4114200    0.2468500          nan
B   B      0.4138000    0.8190300    0.2510300          nan
B   B      0.1750600    0.5790300    0.2555800          nan
B   B      0.4157200    0.5796200    0.2374900          nan
C   C      0.2968600    0.5821200    0.2474300          nan
C   C      0.4111800    0.6964500    0.2377600          nan
C   C      0.2938100    0.6959500    0.2635000          nan
C   C      0.7117900    0.4106400    0.2387000          nan
C   C      0.6010900    0.2951300    0.2384700          nan
C   C      0.7194000    0.2981300    0.2140600          nan
H   H      0.4713600    0.7262600    0.2291600          nan
H   H      0.2632000    0.7253800    0.2710400          nan
H   H      0.2684100    0.5227800    0.2447300          nan
H   H      0.5420700    0.2642800    0.2423100          nan
H   H      0.7513700    0.2694500    0.2039500          nan
H   H      0.7383900    0.4699900    0.2460900          nan
H   H      0.6431000    0.6804300    0.1696400          nan
H   H      0.3656800    0.9778200    0.1440900          nan
H   H      0.0668400    0.3480000    0.9665800          nan
H   H      0.3597800    0.3444900    0.1414900          nan
H   H      0.7230000    0.0314500    0.0339100          nan
H   H      0.9480900    0.6313400    0.2870900          nan
H   H      0.3719800    0.3091700    0.2724700          nan
H   H      0.6654800    0.0326400    0.3033500          nan
H   H      0.9351700    0.6431800    0.5194300          nan
H   H      0.6239200    0.6569700    0.3787900          nan
H   H      0.2958300    0.9486100    0.3984500          nan
H   H      0.0639900    0.3624900    0.1856900          nan
H   H      0.7647800    0.6311900    0.9174100          nan
H   H      0.3905400    0.1060800    0.2646100          nan
H   H      0.9032000    0.2797800    0.1746800          nan
H   H      0.2508400    0.3915700    0.4819800          nan
H   H      0.6603300    0.8924500    0.0303800          nan
H   H      0.1196700    0.6964300    0.1038200          nan
H   H      0.2637400    0.3592200    0.6163100          nan
H   H      0.6064200    0.8964900    0.2996500          nan
H   H      0.0925100    0.7226100    0.3541700          nan
H   H      0.7435500    0.6075900    0.1300200          nan
H   H      0.3350700    0.0842000    0.5182500          nan
H   H      0.8930400    0.3033800    0.4060100          nan
H   H      0.7800300    0.7397400    0.2552800          nan
H   H      0.1908800    0.0114100    0.5670100          nan
H   H      0.9799100    0.2284000    0.2827700          nan
H   H      0.2048300    0.2292500    0.4923500          nan
H   H      0.7567400    0.9720700    0.2358300          nan
H   H      0.0059600    0.7872900    0.4219600          nan
H   H      0.1898000    0.2632400    0.3637900          nan
H   H      0.8099700    0.9643100    0.9632900          nan
H   H      0.0295600    0.7571300    0.1720900          nan
H   H      0.8039600    0.7643600    0.0381700          nan
H   H      0.2436500    0.0231300    0.3036600          nan
H   H      0.9837100    0.2015300    0.0567000          nan
C   C      0.6452900    0.6406100    0.2176700          nan
C   C      0.3552500    0.9939000    0.2949700          nan
C   C      0.0254000    0.3563600    0.1374900          nan
C   C      0.3582900    0.3532500    0.2787400          nan
C   C      0.6623700   -0.0004800    0.1746900          nan
C   C      0.9822000    0.6378600    0.3483500          nan
C   C      0.7413700    0.6466500    0.0799600          nan
C   C      0.3360500    0.0632100    0.3797400          nan
C   C      0.9365800    0.2896700    0.2406100          nan
C   C      0.2647800    0.3482400    0.4789600          nan
C   C      0.6652200    0.9266300    0.1555000          nan
C   C      0.0677700    0.7077600    0.2633300          nan
C   C      0.8024000    0.7240500    0.0936400          nan
C   C      0.2471300    0.0485800    0.4356700          nan
C   C      0.9460600    0.2204000    0.2195900          nan
C   C      0.1925400    0.2736700    0.4948700          nan
C   C      0.7502300    0.9377600    0.1128200          nan
C   C      0.0542000    0.7713900    0.2633400          nan
H   H      0.8708400    0.7289900    0.0000900          nan
H   H      0.2363500    0.0990900    0.4808200          nan
H   H      0.8802800    0.1761300    0.3063100          nan
H   H      0.1262100    0.2696500    0.6396100          nan
H   H      0.7502400    0.8855100    0.1072600          nan
H   H      0.1169800    0.8197100    0.1932300          nan
C   C      0.5704200    0.0022300    0.7116600          nan
C   C      0.9855000    0.5713600    0.8020800          nan
C   C      0.4278300    0.4364500    0.7668700          nan
C   C      0.4195600    0.0032200    0.7706400          nan
C   C      0.0055200    0.4308000    0.6992600          nan
C   C      0.5738200    0.5790100    0.7261100          nan
C   C      0.5626700    0.0649400    0.7212400          nan
C   C      0.9307700    0.5044400    0.7701400          nan
C   C      0.4985000    0.4447500    0.7553600          nan
C   C      0.4282000    0.9407000    0.7574900          nan
C   C      0.0608800    0.4979100    0.7283100          nan
C   C      0.5027800    0.5703800    0.7370100          nan
O   O      0.6233300    0.1359600    0.7059800          nan
O   O      0.8603300    0.4929400    0.7769800          nan
O   O      0.5110000    0.3890900    0.7641600          nan
O   O      0.3671900    0.8697400    0.7732200          nan
O   O      0.1320300    0.5089800    0.7177500          nan
O   O      0.4886000    0.6254100    0.7293200          nan
C   C      0.0517300    0.5640100    0.7776200          nan
C   C      0.4342500    0.5035600    0.7568000          nan
C   C      0.4984600    0.9395500    0.7301800          nan
C   C      0.9394600    0.4380500    0.7230600          nan
C   C      0.5674400    0.5115800    0.7358900          nan
C   C      0.4922700    0.0660700    0.7482500          nan
O   O      0.1169500    0.6181200    0.8003900          nan
O   O      0.3757300    0.5147300    0.7618000          nan
O   O      0.4828800    0.8675800    0.7276400          nan
O   O      0.8740000    0.3836800    0.7014800          nan
O   O      0.6245400    0.4985000    0.7329600          nan
O   O      0.5079400    0.1381000    0.7496900          nan
C   C      0.6306300    0.2641200    0.7278400          nan
C   C      0.7462000    0.3787600    0.7270100          nan
C   C      0.6302900    0.3813200    0.7458700          nan
C   C      0.3617300    0.7421000    0.7536900          nan
C   C      0.2477400    0.6243900    0.7625400          nan
C   C      0.3670300    0.6286900    0.7440600          nan
B   B      0.5882700    0.1803700    0.7256800          nan
B   B      0.8263300    0.4183300    0.7338000          nan
B   B      0.5890100    0.4230300    0.7499800          nan
B   B      0.4025800    0.8255200    0.7527000          nan
B   B      0.1660200    0.5833900    0.7619300          nan
B   B      0.4102400    0.5900700    0.7441200          nan
C   C      0.2897500    0.5890600    0.7530800          nan
C   C      0.4028100    0.7051100    0.7413500          nan
C   C      0.2842000    0.7009500    0.7648500          nan
C   C      0.7070500    0.4175000    0.7382800          nan
C   C      0.5924300    0.3047400    0.7428700          nan
C   C      0.7076500    0.3021300    0.7194800          nan
H   H      0.4631600    0.7365200    0.7320100          nan
H   H      0.2525900    0.7287100    0.7700300          nan
H   H      0.2620200    0.5297700    0.7536600          nan
H   H      0.5330000    0.2763700    0.7485100          nan
H   H      0.7370700    0.2715400    0.7120500          nan
H   H      0.7367800    0.4768400    0.7413300          nan
H   H      0.6444700    0.6921200    0.6597900          nan
H   H      0.3447300    0.9748900    0.6615100          nan
H   H      0.0714600    0.3589300    0.4807100          nan
H   H      0.3511500    0.3599100    0.6592900          nan
H   H      0.7098500    0.0395200    0.5501300          nan
H   H      0.9318300    0.6331400    0.8117600          nan
H   H      0.3725000    0.3203400    0.7585900          nan
H   H      0.6468800    0.0354300    0.8206100          nan
H   H      0.9313900    0.6490500    0.0277600          nan
H   H      0.6159800    0.6709300    0.8855400          nan
H   H      0.2816600    0.9517100    0.9185600          nan
H   H      0.0497700    0.3694100    0.7235600          nan
H   H      0.7649400    0.6437400    0.4364700          nan
H   H      0.3670800    0.1045300    0.7665700          nan
H   H      0.9146400    0.2784300    0.6257800          nan
H   H      0.2467900    0.4016400    0.0251500          nan
H   H      0.6462400    0.8996800    0.5301700          nan
H   H      0.1037100    0.6974000    0.5881300          nan
H   H      0.2640300    0.3575000    0.1238500          nan
H   H      0.5912000    0.8996400    0.7986900          nan
H   H      0.0932400    0.7213400    0.8207600          nan
H   H      0.7336200    0.6178600    0.6605200          nan
H   H      0.3172900    0.0881800    0.0215600          nan
H   H      0.8817100    0.3000000    0.8818000          nan
H   H      0.7692600    0.7503700    0.7894000          nan
H   H      0.1714600    0.0036500    0.0788700          nan
H   H      0.9704000    0.2384000    0.8161700          nan
H   H      0.2030600    0.2362900    0.9726200          nan
H   H      0.7401100    0.9704800    0.7406800          nan
H   H     -0.0002800    0.7896600    0.9510600          nan
H   H      0.1866700    0.2820400    0.8741300          nan
H   H      0.7948000    0.9699900    0.4686200          nan
H   H      0.0093700    0.7652700    0.7168200          nan
H   H      0.8055500    0.7762800    0.5570600          nan
H   H      0.2195200    0.0142500    0.8187700          nan
H   H      0.0028300    0.2152800    0.5573100          nan
C   C      0.6419100    0.6530300    0.7219300          nan
C   C      0.3384600    0.9957900    0.8072500          nan
C   C      0.0199800    0.3623500    0.6502800          nan
C   C      0.3546900    0.3648500    0.7858200          nan
C   C      0.6475800    0.0053400    0.6849100          nan
C   C      0.9722800    0.6408800    0.8565500          nan
C   C      0.7365400    0.6582000    0.6022400          nan
C   C      0.3158900    0.0630400    0.8868300          nan
C   C      0.9362100    0.2913300    0.7225200          nan
C   C      0.2623300    0.3553600   -0.0036900          nan
C   C      0.6503700    0.9314600    0.6579300          nan
C   C      0.0589800    0.7093300    0.7549300          nan
C   C      0.7969400    0.7346400    0.6244400          nan
C   C      0.2237000    0.0417200    0.9491800          nan
C   C      0.9505600    0.2271800    0.7163900          nan
C   C      0.1900600    0.2837800   -0.0016700          nan
C   C      0.7348400    0.9402800    0.6132200          nan
C   C      0.0423900    0.7755700    0.7847600          nan
H   H      0.8634000    0.7373600    0.5456800          nan
H   H      0.2070800    0.0893100   -0.0010300          nan
H   H      0.8892300    0.1774500    0.7729500          nan
H   H      0.1238000    0.2767000    0.1471200          nan
H   H      0.7358200    0.8870200    0.5946600          nan
H   H      0.1048500    0.8237300    0.7096600          nan
